/*--------------------------------*- C++ -*----------------------------------*\
| =========                 |                                                 |
| \\      /  F ield         | OpenFOAM: The Open Source CFD Toolbox           |
|  \\    /   O peration     | Version:  2.2.x                                 |
|   \\  /    A nd           | Web:      www.OpenFOAM.org                      |
|    \\/     M anipulation  |                                                 |
\*---------------------------------------------------------------------------*/
FoamFile
{
    version     2.0;
    format      ascii;
    class       volScalarField;
    location    "0";
    object      T;
}
// * * * * * * * * * * * * * * * * * * * * * * * * * * * * * * * * * * * * * //

dimensions      [0 0 0 1 0 0 0];

internalField   uniform 293.15;

boundaryField
{
    "(inlet|outlet|sides)"
    {
        // type            zeroGradient;
        //
        // type            fixedValue;
        // value           uniform 300;
        //
        type            inletOutlet;
        inletValue      $internalField;
        value           $internalField;
    }

    hotWall
    {
        type            fixedValue;
        value           uniform 313.15;
    }
}


// ************************************************************************* //
