/*--------------------------------*- C++ -*----------------------------------*\
| =========                 |                                                 |
| \\      /  F ield         | OpenFOAM: The Open Source CFD Toolbox           |
|  \\    /   O peration     | Version:  2.3.0                                 |
|   \\  /    A nd           | Web:      www.OpenFOAM.org                      |
|    \\/     M anipulation  |                                                 |
\*---------------------------------------------------------------------------*/
FoamFile
{
    version     2.0;
    format      ascii;
    class       dictionary;
    location    "system";
    object      controlDict;
}
// * * * * * * * * * * * * * * * * * * * * * * * * * * * * * * * * * * * * * //

application     pimpleTracerFoam;

//startFrom       startTime;
startFrom       latestTime;

startTime       0;

stopAt          endTime;
// stopAt          writeNow;
// stopAt          noWriteNow;

endTime         0.05;

//deltaT          1e-5;
deltaT          1e-6;

writeControl    runTime;
// writeControl    adjustableRunTime;

writeInterval   0.001;

purgeWrite      0;

writeFormat     binary;

writePrecision  6;
// writePrecision  8; // For parallel meshing

writeCompression off;

timeFormat      general;

timePrecision   6;

runTimeModifiable true;

// adjustTimeStep  yes;
adjustTimeStep  no;

maxCo           2;


// ************************************************************************* //
